 &NAMELIST 
   im=144,jm=73,
   ntau=5,
   dtau(1)=24.,
   dtau(2)=48.,
   dtau(3)=72.,
   dtau(4)=96.,
   dtau(5)=120.,
   dtau(6)=144.,
   dtau(7)=168.,
   narea=6,
   darea(1)='DPNA',
   darea(2)='DPSA',
   darea(3)='DPTP',
   darea(4)='DPEA',
   darea(5)='DPUS',
   darea(6)='DPEU',
   bdlts(1)=20.,  bdltn(1)=80.,  BDLNW(1)=0.,    BDLNE(1)=-2.5,
   bdlts(2)=-80., bdltn(2)=-20., BDLNW(2)=0.,    BDLNE(2)=-2.5,
   bdlts(3)=-20., bdltn(3)=20.,  BDLNW(3)=0.,    BDLNE(3)=-2.5,
   bdlts(4)=20.,  bdltn(4)=60.,  BDLNW(4)=70.,   BDLNE(4)=150.,
   bdlts(5)=20.,  bdltn(5)=60.,  BDLNW(5)=-130., BDLNE(5)=-60.,
   bdlts(6)=20.,  bdltn(6)=60.,  BDLNW(6)=-10.,  BDLNE(6)= 40.,
   mtype='GH0A',
   reflt=-90.,refln=0.,
   gint=2.5,dy=277943.675,
   igrdsout=1,
   ilistout=1,
   anaflag='GH0A',
   dig_topog='N', 
 &END

 &FILELIST 
  ipfn1='MASOPS',
  ipfn2='CWBCLM',
  ipfn3='MASOPS',
  opfn='SCORE',
  mapfn='                                                            ',
 &END
